Tesis UCR/Useless/14bus.cf
 10/03/09 PSAT ARCHIVE         100.00 2009 W 14-Bus 20-Line System                                                              
BUS DATA FOLLOW                         14 ITEMS                                                                                
   1  Bus 01       1  0  3 1.0600  0.000   0.0000    0.0000 232.000   0.000   69.00 1.0600 1000.00-1000.00  0.0000  0.0000    1
   2  Bus 02       1  0  2 1.0450  0.000  21.7000   12.7000  40.000   0.000   69.00 1.0450   50.00  -40.00  0.0000  0.0000    2
   3  Bus 03       1  0  2 1.0100  0.000  94.2000   19.0000   0.000   0.000   69.00 1.0100   40.00    0.00  0.0000  0.0000    3
   4  Bus 04       1  0  0 1.0000  0.000  47.8000    0.0000   0.000   0.000   69.00 1.0000    0.00    0.00  0.0000  0.0000    4
   5  Bus 05       1  0  0 1.0000  0.000   7.6000    1.6000   0.000   0.000   69.00 1.0000    0.00    0.00  0.0000  0.0000    5
   6  Bus 06       1  0  2 1.0700  0.000  11.2000    7.5000   0.000   0.000   13.80 1.0700   24.00   -6.00  0.0000  0.0000    6
   7  Bus 07       1  0  0 1.0000  0.000   0.0000    0.0000   0.000   0.000   13.80 1.0000    0.00    0.00  0.0000  0.0000    7
   8  Bus 08       1  0  2 1.0900  0.000   0.0000    0.0000   0.000   0.000   18.00 1.0900   24.00   -6.00  0.0000  0.0000    8
   9  Bus 09       1  0  0 1.0000  0.000  29.5000   16.6000   0.000   0.000   13.80 1.0000    0.00    0.00  0.0000  0.0000    9
  10  Bus 10       1  0  0 1.0000  0.000   9.0000    5.8000   0.000   0.000   13.80 1.0000    0.00    0.00  0.0000  0.0000   10
  11  Bus 11       1  0  0 1.0000  0.000   3.5000    1.8000   0.000   0.000   13.80 1.0000    0.00    0.00  0.0000  0.0000   11
  12  Bus 12       1  0  0 1.0000  0.000   6.1000    1.6000   0.000   0.000   13.80 1.0000    0.00    0.00  0.0000  0.0000   12
  13  Bus 13       1  0  0 1.0000  0.000  13.5000    5.8000   0.000   0.000   13.80 1.0000    0.00    0.00  0.0000  0.0000   13
  14  Bus 14       1  0  0 1.0000  0.000  14.9000    5.0000   0.000   0.000   13.80 1.0000    0.00    0.00  0.0000  0.0000   14
-999
BRANCH DATA FOLLOW                      20 ITEMS                                                                                
   2    5  1 1  1 0 0.0569500 0.17388000 0.0340000    0     0     0    0 0  0.0000   0.000 0.0000 0.0000 0.0000  0.0000 0.0000
   6   12  1 1  1 0 0.1229100 0.25581000 0.0000000    0     0     0    0 0  0.0000   0.000 0.0000 0.0000 0.0000  0.0000 0.0000
  12   13  1 1  1 0 0.2209200 0.19988000 0.0000000    0     0     0    0 0  0.0000   0.000 0.0000 0.0000 0.0000  0.0000 0.0000
   6   13  1 1  1 0 0.0661500 0.13027000 0.0000000    0     0     0    0 0  0.0000   0.000 0.0000 0.0000 0.0000  0.0000 0.0000
   6   11  1 1  1 0 0.0949800 0.19890000 0.0000000    0     0     0    0 0  0.0000   0.000 0.0000 0.0000 0.0000  0.0000 0.0000
  11   10  1 1  1 0 0.0820500 0.19207000 0.0000000    0     0     0    0 0  0.0000   0.000 0.0000 0.0000 0.0000  0.0000 0.0000
   9   10  1 1  1 0 0.0318100 0.08450000 0.0000000    0     0     0    0 0  0.0000   0.000 0.0000 0.0000 0.0000  0.0000 0.0000
   9   14  1 1  1 0 0.1271100 0.27038000 0.0000000    0     0     0    0 0  0.0000   0.000 0.0000 0.0000 0.0000  0.0000 0.0000
  14   13  1 1  1 0 0.1709300 0.34802000 0.0000000    0     0     0    0 0  0.0000   0.000 0.0000 0.0000 0.0000  0.0000 0.0000
   7    9  1 1  1 0 0.0000000 0.11001000 0.0000000    0     0     0    0 0  0.0000   0.000 0.0000 0.0000 0.0000  0.0000 0.0000
   1    2  1 1  1 0 0.0193800 0.05917000 0.0528000    0     0     0    0 0  0.0000   0.000 0.0000 0.0000 0.0000  0.0000 0.0000
   3    2  1 1  1 0 0.0469900 0.19797000 0.0438000    0     0     0    0 0  0.0000   0.000 0.0000 0.0000 0.0000  0.0000 0.0000
   3    4  1 1  1 0 0.0670100 0.17103000 0.0346000    0     0     0    0 0  0.0000   0.000 0.0000 0.0000 0.0000  0.0000 0.0000
   1    5  1 1  1 0 0.0540300 0.22304000 0.0492000    0     0     0    0 0  0.0000   0.000 0.0000 0.0000 0.0000  0.0000 0.0000
   5    4  1 1  1 0 0.0133500 0.04211000 0.0128000    0     0     0    0 0  0.0000   0.000 0.0000 0.0000 0.0000  0.0000 0.0000
   2    4  1 1  1 0 0.0581100 0.17632000 0.0374000    0     0     0    0 0  0.0000   0.000 0.0000 0.0000 0.0000  0.0000 0.0000
   5    6  1 1  1 1 0.0000000 0.25202000 0.0000000    0     0     0    6 0  0.9320   0.000 0.0000 0.0000 0.0000  0.0000 0.0000
   4    9  1 1  1 1 0.0000000 0.55618000 0.0000000    0     0     0    9 0  0.9690   0.000 0.0000 0.0000 0.0000  0.0000 0.0000
   4    7  1 1  1 1 0.0000000 0.20912000 0.0000000    0     0     0    7 0  0.9780   0.000 0.0000 0.0000 0.0000  0.0000 0.0000
   8    7  1 1  1 1 0.0000000 0.17615000 0.0000000    0     0     0    7 0  1.0000   0.000 0.0000 0.0000 0.0000  0.0000 0.0000
-999
LOSS ZONES FOLLOW                       1 ITEMS                                                                                 
  1 14-Bus      
-99
INTERCHANGE DATA FOLLOW                 1 ITEMS                                                                                 
 1    1 Bus 01          0.00 999.99  14Bus   14-Bus 20-Line System         
-9
TIE LINES FOLLOW                        0 ITEMS                                                                                 
-999
END OF DATA 